<?xml version="1.0" encoding="ISO-8859-1"?>
<febio_spec version="3.0">
	<Module type="solid"/>
	<Control>
		<analysis>STATIC</analysis>
		<time_steps>10</time_steps>
		<step_size>0.1</step_size>
		<solver>
			<max_refs>15</max_refs>
			<max_ups>10</max_ups>
			<diverge_reform>1</diverge_reform>
			<reform_each_time_step>1</reform_each_time_step>
			<dtol>0.001</dtol>
			<etol>0.01</etol>
			<rtol>0</rtol>
			<lstol>0.9</lstol>
			<min_residual>1e-20</min_residual>
			<qnmethod>BFGS</qnmethod>
			<rhoi>0</rhoi>
		</solver>
		<time_stepper>
			<dtmin>0.01</dtmin>
			<dtmax>0.1</dtmax>
			<max_retries>5</max_retries>
			<opt_iter>10</opt_iter>
		</time_stepper>
	</Control>
	<Globals>
		<Constants>
			<T>0</T>
			<R>0</R>
			<Fc>0</Fc>
		</Constants>
	</Globals>
	<Material>
		<material id="1" name="Material1" type="Mooney-Rivlin">
			<density>1</density>
			<c1>1</c1>
			<c2>0</c2>
			<k>10</k>
		</material>
	</Material>
	<Mesh>
		<Nodes name="part1">
			<node id="1">77.883903503,63.633701324,45.870201111</node>
			<node id="2">76.77336587,63.759025028,46.914583476</node>
			<node id="3">76.652350702,64.924366964,46.544688706</node>
			<node id="4">77.754029265,64.853180062,45.517222941</node>
			<node id="5">76.052668152,63.742557035,48.241635384</node>
			<node id="6">75.809748456,64.990432049,47.802772915</node>
			<node id="7">75.645219874,63.810739317,49.698733753</node>
			<node id="8">75.340969628,65.174681787,49.256159159</node>
			<node id="9">75.554742379,63.972230589,51.204909329</node>
			<node id="10">75.231787086,65.434332158,50.889343289</node>
			<node id="11">75.706420876,64.09733073,52.717652782</node>
			<node id="12">75.48552829,65.517446994,52.59369466</node>
			<node id="13">75.937184551,64.015914473,54.227571293</node>
			<node id="14">75.71267819,65.435768853,54.210980277</node>
			<node id="15">76.507170765,63.921389076,55.643156707</node>
			<node id="16">76.145932059,65.382121002,55.711481446</node>
			<node id="17">77.041187021,63.989335037,57.069863308</node>
			<node id="18">76.705180005,65.397248978,57.190388771</node>
			<node id="19">77.687686359,64.077744291,58.441427896</node>
			<node id="20">77.366616689,65.425818533,58.616500995</node>
<!-- ... 1091 like lines cut -->
		</Nodes>
		<Elements type="quad4" name="Part1">
			<elem id="1">1,2,3,4</elem>
			<elem id="2">2,5,6,3</elem>
			<elem id="3">5,7,8,6</elem>
			<elem id="4">7,9,10,8</elem>
			<elem id="5">9,11,12,10</elem>
			<elem id="6">11,13,14,12</elem>
			<elem id="7">13,15,16,14</elem>
			<elem id="8">15,17,18,16</elem>
			<elem id="9">17,19,20,18</elem>
			<elem id="10">19,21,22,20</elem>
			<elem id="11">21,23,24,22</elem>
			<elem id="12">23,25,26,24</elem>
			<elem id="13">25,27,28,26</elem>
			<elem id="14">27,29,30,28</elem>
			<elem id="15">29,31,32,30</elem>
			<elem id="16">31,33,34,32</elem>
			<elem id="17">33,35,36,34</elem>
			<elem id="18">35,37,38,36</elem>
			<elem id="19">37,39,40,38</elem>
			<elem id="20">39,41,42,40</elem>
<!-- ... 1041 like lines cut -->
		</Elements>
		<NodeSet name="VAJ">
			<n id="1"/>
			<n id="2"/>
			<n id="7"/>
			<n id="9"/>
			<n id="17"/>
			<n id="19"/>
			<n id="21"/>
			<n id="23"/>
			<n id="25"/>
			<n id="29"/>
			<n id="31"/>
			<n id="33"/>
			<n id="41"/>
			<n id="43"/>
			<n id="45"/>
			<n id="47"/>
			<n id="49"/>
			<n id="51"/>
			<n id="53"/>
			<n id="55"/>
<!-- ... 14 like lines cut -->
		</NodeSet>
		<NodeSet name="STJ">
			<n id="85"/>
			<n id="86"/>
			<n id="89"/>
			<n id="91"/>
			<n id="93"/>
			<n id="95"/>
			<n id="97"/>
			<n id="99"/>
			<n id="101"/>
			<n id="103"/>
			<n id="105"/>
			<n id="107"/>
			<n id="109"/>
			<n id="111"/>
			<n id="113"/>
			<n id="115"/>
			<n id="117"/>
			<n id="119"/>
			<n id="121"/>
			<n id="123"/>
<!-- ... 34 like lines cut -->
		</NodeSet>
		<Surface name="PressureLoad1">
			<quad4 id="1">1,2,3,4</quad4>
			<quad4 id="2">2,5,6,3</quad4>
			<quad4 id="3">5,7,8,6</quad4>
			<quad4 id="4">7,9,10,8</quad4>
			<quad4 id="5">9,11,12,10</quad4>
			<quad4 id="6">11,13,14,12</quad4>
			<quad4 id="7">13,15,16,14</quad4>
			<quad4 id="8">15,17,18,16</quad4>
			<quad4 id="9">17,19,20,18</quad4>
			<quad4 id="10">19,21,22,20</quad4>
			<quad4 id="11">21,23,24,22</quad4>
			<quad4 id="12">23,25,26,24</quad4>
			<quad4 id="13">25,27,28,26</quad4>
			<quad4 id="14">27,29,30,28</quad4>
			<quad4 id="15">29,31,32,30</quad4>
			<quad4 id="16">31,33,34,32</quad4>
			<quad4 id="17">33,35,36,34</quad4>
			<quad4 id="18">35,37,38,36</quad4>
			<quad4 id="19">37,39,40,38</quad4>
			<quad4 id="20">39,41,42,40</quad4>
<!-- ... 1041 like lines cut -->
		</Surface>
	</Mesh>
	<MeshDomains>
		<ShellDomain name="Part1" mat="Material1">
			<shell_normal_nodal>1</shell_normal_nodal>
		</ShellDomain>
	</MeshDomains>
	<MeshData>
		<ElementData var="shell thickness" elem_set="Part1">
			<e lid="1">3.0843743587,3.0843743587,1.7112890702,1.9854161324</e>
			<e lid="2">3.0843743587,3.0843725679,1.9495463897,1.7112890702</e>
			<e lid="3">3.0843725679,3.0843744067,1.9500624641,1.9495463897</e>
			<e lid="4">3.0843744067,3.0843761363,1.7352258446,1.9500624641</e>
			<e lid="5">3.0843761363,3.084373816,1.4510462296,1.7352258446</e>
			<e lid="6">3.084373816,3.0843711817,1.3865380116,1.4510462296</e>
			<e lid="7">3.0843711817,3.0843733906,1.4370628395,1.3865380116</e>
			<e lid="8">3.0843733906,3.0843743587,1.4167297197,1.4370628395</e>
			<e lid="9">3.0843743587,3.0843757527,1.4395683023,1.4167297197</e>
			<e lid="10">3.0843757527,3.0843774963,1.5237079061,1.4395683023</e>
			<e lid="11">3.0843774963,3.0843773401,1.6527278114,1.5237079061</e>
			<e lid="12">3.0843773401,3.0843758506,1.998372097,1.6527278114</e>
			<e lid="13">3.0843758506,3.0843729359,2.1616794293,1.998372097</e>
			<e lid="14">3.0843729359,3.0843746401,2.2769730135,2.1616794293</e>
			<e lid="15">3.0843746401,3.0843744922,2.1758874331,2.2769730135</e>
			<e lid="16">3.0843744922,3.0843743587,2.1667792244,2.1758874331</e>
			<e lid="17">3.0843743587,3.0843742878,2.2010176505,2.1667792244</e>
			<e lid="18">3.0843742878,3.0843743582,2.3156901851,2.2010176505</e>
			<e lid="19">3.0843743582,3.084374223,2.5631596482,2.3156901851</e>
			<e lid="20">3.084374223,3.0843743587,2.8557699709,2.5631596482</e>
<!-- ... 1041 like lines cut -->
		</ElementData>
	</MeshData>
	<Boundary>
		<bc name="FixedDisplacement1" type="fix" node_set="VAJ">
			<dofs>x,y,z</dofs>
		</bc>
		<bc name="FixedDisplacement2" type="fix" node_set="STJ">
			<dofs>x,y,z</dofs>
		</bc>
	</Boundary>
	<Loads>
		<surface_load name="PressureLoad1" type="pressure" surface="PressureLoad1">
			<pressure lc="1">-0.1332</pressure>
			<linear>0</linear>
			<symmetric_stiffness>1</symmetric_stiffness>
		</surface_load>
	</Loads>
	<LoadData>
		<load_controller id="1" type="loadcurve">
			<interpolate>SMOOTH</interpolate>
			<points>
				<point>0,0</point>
				<point>1,1</point>
			</points>
		</load_controller>
	</LoadData>
	<Output>
		<plotfile type="febio">
			<var type="displacement"/>
			<var type="relative volume"/>
			<var type="stress"/>
		</plotfile>
	</Output>
</febio_spec>
